
  RDKit   07122612412D

 32 35  0  0  0  0  0  0  0  0999 V2000
  -92.0788  -80.9133    0.0000 C   0  0  0  0  0  0  0  0  0  0  0  0
 -102.6323  -46.3332    0.0000 C   0  0  0  0  0  0  0  0  0  0  0  0
 -130.2937  -91.3691    0.0000 C   0  0  0  0  0  0  0  0  0  0  0  0
 -141.5542  -85.0938    0.0000 C   0  0  0  0  0  0  0  0  0  0  0  0
  -64.4175  -35.8774    0.0000 C   0  0  0  0  0  0  0  0  0  0  0  0
  -53.1569  -42.1528    0.0000 C   0  0  0  0  0  0  0  0  0  0  0  0
 -112.3953  -63.8516    0.0000 C   0  0  0  0  0  0  0  0  0  0  0  0
  -82.3158  -63.3950    0.0000 C   0  0  0  0  0  0  0  0  0  0  0  0
 -106.9868  -89.8246    0.0000 C   0  0  0  0  0  0  0  0  0  0  0  0
  -87.7243  -37.4219    0.0000 C   0  0  0  0  0  0  0  0  0  0  0  0
 -102.3686  -63.6993    0.0000 C   0  0  0  0  0  0  0  0  0  0  0  0
  -92.3425  -63.5473    0.0000 C   0  0  0  0  0  0  0  0  0  0  0  0
 -117.0129  -89.9766    0.0000 C   0  0  0  0  0  0  0  0  0  0  0  0
  -77.6982  -37.2700    0.0000 C   0  0  0  0  0  0  0  0  0  0  0  0
 -132.4476  -64.1555    0.0000 C   0  0  0  0  0  0  0  0  0  0  0  0
  -62.2635  -63.0911    0.0000 C   0  0  0  0  0  0  0  0  0  0  0  0
 -122.4215  -64.0035    0.0000 C   0  0  0  0  0  0  0  0  0  0  0  0
  -72.2897  -63.2430    0.0000 C   0  0  0  0  0  0  0  0  0  0  0  0
 -102.1056  -81.0656    0.0000 C   0  0  0  0  0  0  0  0  0  0  0  0
  -92.6056  -46.1809    0.0000 C   0  0  0  0  0  0  0  0  0  0  0  0
 -107.2505  -72.4586    0.0000 C   0  0  0  0  0  0  0  0  0  0  0  0
  -87.4607  -54.7880    0.0000 C   0  0  0  0  0  0  0  0  0  0  0  0
 -122.1578  -81.3695    0.0000 C   0  0  0  0  0  0  0  0  0  0  0  0
  -72.5533  -45.8770    0.0000 C   0  0  0  0  0  0  0  0  0  0  0  0
 -137.3294  -72.9148    0.0000 C   0  0  0  0  0  0  0  0  0  0  0  0
  -57.3817  -54.3317    0.0000 C   0  0  0  0  0  0  0  0  0  0  0  0
 -132.1845  -81.5218    0.0000 C   0  0  0  0  0  0  0  0  0  0  0  0
  -62.5266  -45.7247    0.0000 C   0  0  0  0  0  0  0  0  0  0  0  0
 -117.2766  -72.6105    0.0000 C   0  0  0  0  0  0  0  0  0  0  0  0
  -77.4345  -54.6360    0.0000 C   0  0  0  0  0  0  0  0  0  0  0  0
 -147.3556  -73.0668    0.0000 O   0  0  0  0  0  0  0  0  0  0  0  0
  -47.3556  -54.1798    0.0000 O   0  0  0  0  0  0  0  0  0  0  0  0
  1 19  2  0  0  0  0
  2 20  2  0  0  0  0
  3 27  1  0  0  0  0
  4 27  1  0  0  0  0
  5 28  1  0  0  0  0
  6 28  1  0  0  0  0
 29  7  1  1  0  0  0
 30  8  1  1  0  0  0
  9 13  1  0  0  0  0
  9 19  1  0  0  0  0
 10 14  1  0  0  0  0
 10 20  1  0  0  0  0
 11 12  1  0  0  0  0
 21 11  1  1  0  0  0
 22 12  1  1  0  0  0
 23 13  1  1  0  0  0
 24 14  1  1  0  0  0
 15 17  1  0  0  0  0
 15 25  1  0  0  0  0
 16 18  1  0  0  0  0
 16 26  1  0  0  0  0
 17 29  1  0  0  0  0
 18 30  1  0  0  0  0
 19 21  1  0  0  0  0
 20 22  1  0  0  0  0
 21 29  1  0  0  0  0
 22 30  1  0  0  0  0
 23 27  1  0  0  0  0
 23 29  1  0  0  0  0
 24 28  1  0  0  0  0
 24 30  1  0  0  0  0
 25 27  1  0  0  0  0
 25 31  1  1  0  0  0
 26 28  1  0  0  0  0
 26 32  1  1  0  0  0
M  ZZC   1 24
M  ZZC   2 32
M  ZZC   3 12
M  ZZC   4 13
M  ZZC   5 29
M  ZZC   6 30
M  ZZC   7 11
M  ZZC   8 28
M  ZZC   9 9
M  ZZC  10 26
M  ZZC  11 15
M  ZZC  12 16
M  ZZC  13 10
M  ZZC  14 27
M  ZZC  15 5
M  ZZC  16 22
M  ZZC  17 6
M  ZZC  18 23
M  ZZC  19 8
M  ZZC  20 25
M  ZZC  21 7
M  ZZC  22 17
M  ZZC  23 2
M  ZZC  24 19
M  ZZC  25 4
M  ZZC  26 21
M  ZZC  27 3
M  ZZC  28 20
M  ZZC  29 1
M  ZZC  30 18
M  ZZC  31 14
M  ZZC  32 31
M  END