
  Mrv2011 09132416372D

 25 29  0  0  0  0  0  0  0  0999 V2000
    6.0666    0.8741    0.0000 O   0  0  0  0  0  0  0  0  0  0  0  0
    5.2623    1.0579    0.0000 C   0  0  0  0  0  0  0  0  0  0  0  0
    4.8390    0.3498    0.0000 C   0  0  0  0  0  0  0  0  0  0  0  0
    5.3816   -0.2717    0.0000 O   0  0  0  0  0  0  0  0  0  0  0  0
    6.1403    0.0524    0.0000 C   0  0  0  0  0  0  0  0  0  0  0  0
    4.0141    0.3623    0.0000 C   0  0  0  0  0  0  0  0  0  0  0  0
    3.6125    1.0830    0.0000 C   0  0  0  0  0  0  0  0  0  0  0  0
    4.0358    1.7911    0.0000 C   0  0  0  0  0  0  0  0  0  0  0  0
    4.8607    1.7785    0.0000 C   0  0  0  0  0  0  0  0  0  0  0  0
    3.6342    2.5118    0.0000 C   0  0  0  0  0  0  0  0  0  0  0  0
    2.8093    2.5243    0.0000 C   0  0  0  0  0  0  0  0  0  0  0  0
    2.3860    1.8162    0.0000 N   0  0  0  0  0  0  0  0  0  0  0  0
    2.7876    1.0955    0.0000 C   0  0  0  0  0  0  0  0  0  0  0  0
    2.3643    0.3874    0.0000 C   0  0  0  0  0  0  0  0  0  0  0  0
    1.5394    0.4000    0.0000 C   0  0  0  0  0  0  0  0  0  0  0  0
    1.1161   -0.3082    0.0000 C   0  0  0  0  0  0  0  0  0  0  0  0
    0.2912   -0.2956    0.0000 C   0  0  0  0  0  0  0  0  0  0  0  0
   -0.1104    0.4250    0.0000 C   0  0  0  0  0  0  0  0  0  0  0  0
   -0.9353    0.4376    0.0000 O   0  0  0  0  0  0  0  0  0  0  0  0
   -1.3587   -0.2705    0.0000 C   0  0  0  0  0  0  0  0  0  0  0  0
    0.3129    1.1332    0.0000 C   0  0  0  0  0  0  0  0  0  0  0  0
   -0.0887    1.8538    0.0000 O   0  0  0  0  0  0  0  0  0  0  0  0
    0.3346    2.5619    0.0000 C   0  0  0  0  0  0  0  0  0  0  0  0
    1.1378    1.1206    0.0000 C   0  0  0  0  0  0  0  0  0  0  0  0
    1.5611    1.8287    0.0000 C   0  0  0  0  0  0  0  0  0  0  0  0
  1  2  1  0  0  0  0
  2  3  1  0  0  0  0
  3  4  1  0  0  0  0
  4  5  1  0  0  0  0
  1  5  1  0  0  0  0
  3  6  2  0  0  0  0
  6  7  1  0  0  0  0
  7  8  2  0  0  0  0
  8  9  1  0  0  0  0
  8 10  1  0  0  0  0
 10 11  1  0  0  0  0
 11 12  1  0  0  0  0
 13 12  1  6  0  0  0
 13  7  1  0  0  0  0
 13 14  1  0  0  0  0
 14 15  1  0  0  0  0
 15 16  1  0  0  0  0
 16 17  2  0  0  0  0
 17 18  1  0  0  0  0
 18 19  1  0  0  0  0
 19 20  1  0  0  0  0
 21 22  1  0  0  0  0
 22 23  1  0  0  0  0
 21 24  1  0  0  0  0
 15 24  2  0  0  0  0
 24 25  1  0  0  0  0
 12 25  1  0  0  0  0
  2  9  2  0  0  0  0
 18 21  2  0  0  0  0
M  END