
  Mnova   09242414572D

 29 31  0  0  0  0  0  0  0  0999 V2000
    0.0000    0.0000    0.0000 C   0  0  0  0  0  0  0  0  0  0  0  0
   -1.5358    0.1152    0.0000 C   0  0  0  0  0  0  0  0  0  0  0  0
   -2.2041    1.5027    0.0000 O   0  0  0  0  0  0  0  0  0  0  0  0
   -2.4036   -1.1574    0.0000 N   0  0  0  0  0  0  0  0  0  0  0  0
   -1.7353   -2.5449    0.0000 C   0  0  0  0  0  0  0  0  0  0  0  0
   -0.1951   -2.5449    0.0000 C   0  0  0  0  0  0  0  0  0  0  0  0
    0.7651   -3.7492    0.0000 C   0  0  0  0  0  0  0  0  0  0  0  0
    0.4225   -5.2507    0.0000 C   0  0  0  0  0  0  0  0  0  0  0  0
    1.6949   -6.1183    0.0000 C   0  0  0  0  0  0  0  0  0  0  0  0
    1.5799   -7.6541    0.0000 C   0  0  0  0  0  0  0  0  0  0  0  0
    0.1922   -8.3224    0.0000 C   0  0  0  0  0  0  0  0  0  0  0  0
   -1.0803   -7.4548    0.0000 C   0  0  0  0  0  0  0  0  0  0  0  0
   -0.9652   -5.9190    0.0000 C   0  0  0  0  0  0  0  0  0  0  0  0
   -2.3527   -5.2507    0.0000 C   0  0  0  0  0  0  0  0  0  0  0  0
   -3.3130   -6.4548    0.0000 C   0  0  0  0  0  0  0  0  0  0  0  0
   -4.8532   -6.4548    0.0000 C   0  0  0  0  0  0  0  0  0  0  0  0
   -5.8135   -5.2507    0.0000 C   0  0  0  0  0  0  0  0  0  0  0  0
   -5.4708   -3.7492    0.0000 C   0  0  0  0  0  0  0  0  0  0  0  0
   -6.6749   -2.7889    0.0000 O   0  0  0  0  0  0  0  0  0  0  0  0
   -4.0831   -3.0809    0.0000 C   0  0  0  0  0  0  0  0  0  0  0  0
   -2.6956   -3.7492    0.0000 C   0  0  0  0  0  0  0  0  0  0  0  0
   -7.3149   -5.5934    0.0000 O   0  0  0  0  0  0  0  0  0  0  0  0
   -7.7690   -7.0651    0.0000 C   0  0  0  0  0  0  0  0  0  0  0  0
   -2.4679   -8.1231    0.0000 O   0  0  0  0  0  0  0  0  0  0  0  0
   -2.5830   -9.6589    0.0000 C   0  0  0  0  0  0  0  0  0  0  0  0
    0.0772   -9.8582    0.0000 O   0  0  0  0  0  0  0  0  0  0  0  0
    1.3498  -10.7258    0.0000 C   0  0  0  0  0  0  0  0  0  0  0  0
    2.8525   -8.5217    0.0000 O   0  0  0  0  0  0  0  0  0  0  0  0
    4.2400   -7.8535    0.0000 C   0  0  0  0  0  0  0  0  0  0  0  0
  1  2  1  0  0  0  0
  2  3  2  0  0  0  0
  2  4  1  0  0  0  0
  5  4  1  1  0  0  0
  5  6  1  0  0  0  0
  6  7  1  0  0  0  0
  7  8  1  0  0  0  0
  8  9  2  0  0  0  0
  9 10  1  0  0  0  0
 10 11  2  0  0  0  0
 11 12  1  0  0  0  0
 12 13  2  0  0  0  0
 13  8  1  0  0  0  0
 13 14  1  0  0  0  0
 14 15  2  0  0  0  0
 15 16  1  0  0  0  0
 16 17  2  0  0  0  0
 17 18  1  0  0  0  0
 18 19  2  0  0  0  0
 18 20  1  0  0  0  0
 20 21  2  0  0  0  0
 21  5  1  0  0  0  0
 21 14  1  0  0  0  0
 17 22  1  0  0  0  0
 22 23  1  0  0  0  0
 12 24  1  0  0  0  0
 24 25  1  0  0  0  0
 11 26  1  0  0  0  0
 26 27  1  0  0  0  0
 10 28  1  0  0  0  0
 28 29  1  0  0  0  0
M  ZZC   1 29
M  ZZC   2 20
M  ZZC   3 21
M  ZZC   4 19
M  ZZC   5 4
M  ZZC   6 5
M  ZZC   7 6
M  ZZC   8 7
M  ZZC   9 8
M  ZZC  10 9
M  ZZC  11 10
M  ZZC  12 11
M  ZZC  13 1
M  ZZC  14 2
M  ZZC  15 14
M  ZZC  16 15
M  ZZC  17 16
M  ZZC  18 17
M  ZZC  19 28
M  ZZC  20 18
M  ZZC  21 3
M  ZZC  22 26
M  ZZC  23 27
M  ZZC  24 12
M  ZZC  25 13
M  ZZC  26 24
M  ZZC  27 25
M  ZZC  28 22
M  ZZC  29 23
M  END