
  Mrv2020 10282209582D

 40 43  0  0  0  0  0  0  0  0999 V2000
   -1.8352   -1.8124    0.0000 C   0  0  0  0  0  0  0  0  0  0  0  0
   -1.0180   -1.9252    0.0000 C   0  0  0  0  0  0  0  0  0  0  0  0
   -0.5116   -1.2739    0.0000 O   0  0  0  0  0  0  0  0  0  0  0  0
   -0.7071   -2.6894    0.0000 O   0  0  0  0  0  0  0  0  0  0  0  0
    0.1102   -2.8023    0.0000 C   0  0  0  0  0  0  0  0  0  0  0  0
   -0.0027   -3.6195    0.0000 C   0  0  0  0  0  0  0  0  0  0  0  0
    0.2230   -1.9850    0.0000 C   0  0  0  0  0  0  0  0  0  0  0  0
    0.9274   -2.9151    0.0000 C   0  0  0  0  0  0  0  0  0  0  0  0
    1.2383   -3.6793    0.0000 C   0  0  0  0  0  0  0  0  0  0  0  0
    2.0556   -3.7922    0.0000 C   0  0  0  0  0  0  0  0  0  0  0  0
    2.3665   -4.5563    0.0000 O   0  0  0  0  0  0  0  0  0  0  0  0
    2.5619   -3.1408    0.0000 C   0  0  0  0  0  0  0  0  0  0  0  0
    3.2132   -3.6472    0.0000 C   0  0  0  0  0  0  0  0  0  0  0  0
    1.9106   -2.6345    0.0000 O   0  0  0  0  0  0  0  0  0  0  0  0
    3.0683   -2.4895    0.0000 C   0  0  0  0  0  0  0  0  0  0  0  0
    3.8928   -2.5163    0.0000 C   0  0  0  0  0  0  0  0  0  0  0  0
    3.5330   -3.2587    0.0000 C   0  0  0  0  0  0  0  0  0  0  0  0
    4.4247   -3.1470    0.0000 C   0  0  0  0  0  0  0  0  0  0  0  0
    5.2368   -3.0018    0.0000 C   0  0  0  0  0  0  0  0  0  0  0  0
    5.7686   -3.6325    0.0000 O   0  0  0  0  0  0  0  0  0  0  0  0
    4.1731   -1.7404    0.0000 C   0  0  0  0  0  0  0  0  0  0  0  0
    4.3708   -0.9394    0.0000 C   0  0  0  0  0  0  0  0  0  0  0  0
    3.5218   -1.2340    0.0000 C   0  0  0  0  0  0  0  0  0  0  0  0
    2.8390   -1.6970    0.0000 C   0  0  0  0  0  0  0  0  0  0  0  0
    2.0630   -1.4167    0.0000 O   0  0  0  0  0  0  0  0  0  0  0  0
    4.9853   -1.5952    0.0000 C   0  0  0  0  0  0  0  0  0  0  0  0
    5.2655   -0.8192    0.0000 C   0  0  0  0  0  0  0  0  0  0  0  0
    6.0777   -0.6740    0.0000 C   0  0  0  0  0  0  0  0  0  0  0  0
    6.6095   -1.3047    0.0000 C   0  0  0  0  0  0  0  0  0  0  0  0
    7.4216   -1.1595    0.0000 C   0  0  0  0  0  0  0  0  0  0  0  0
    7.1376   -0.3850    0.0000 C   0  0  0  0  0  0  0  0  0  0  0  0
    8.1351   -0.7453    0.0000 C   0  0  0  0  0  0  0  0  0  0  0  0
    7.9534   -1.7902    0.0000 C   0  0  0  0  0  0  0  0  0  0  0  0
    8.7655   -1.6450    0.0000 O   0  0  0  0  0  0  0  0  0  0  0  0
    6.3292   -2.0807    0.0000 C   0  0  0  0  0  0  0  0  0  0  0  0
    5.5171   -2.2259    0.0000 C   0  0  0  0  0  0  0  0  0  0  0  0
    6.0489   -2.8566    0.0000 C   0  0  0  0  0  0  0  0  0  0  0  0
    6.8610   -2.7114    0.0000 C   0  0  0  0  0  0  0  0  0  0  0  0
    7.6731   -2.5662    0.0000 C   0  0  0  0  0  0  0  0  0  0  0  0
    8.2049   -3.1969    0.0000 O   0  0  0  0  0  0  0  0  0  0  0  0
  1  2  1  0  0  0  0
  2  3  2  0  0  0  0
  2  4  1  0  0  0  0
  4  5  1  0  0  0  0
  5  6  1  0  0  0  0
  5  7  1  0  0  0  0
  8  9  2  0  0  0  0
  9 10  1  0  0  0  0
 10 11  2  0  0  0  0
 10 12  1  0  0  0  0
 12 13  1  0  0  0  0
 12 14  1  0  0  0  0
 12 15  1  0  0  0  0
 15 16  1  0  0  0  0
 15 24  1  0  0  0  0
 16 17  1  0  0  0  0
 16 18  1  0  0  0  0
 16 21  1  0  0  0  0
 18 19  1  0  0  0  0
 19 20  2  0  0  0  0
 19 36  1  0  0  0  0
 21 22  1  0  0  0  0
 21 23  1  0  0  0  0
 21 26  1  0  0  0  0
 23 24  1  0  0  0  0
 24 25  1  0  0  0  0
 26 27  1  0  0  0  0
 26 36  1  0  0  0  0
 27 28  1  0  0  0  0
 28 29  2  0  0  0  0
 29 30  1  0  0  0  0
 29 35  1  0  0  0  0
 30 31  1  0  0  0  0
 30 32  1  0  0  0  0
 30 33  1  0  0  0  0
 33 34  2  0  0  0  0
 33 39  1  0  0  0  0
 35 36  1  0  0  0  0
 35 38  1  0  0  0  0
 36 37  1  0  0  0  0
 38 39  2  0  0  0  0
 39 40  1  0  0  0  0
  8  5  1  0  0  0  0
M  END