
  Mnova   12172416062D

 31 32  0  0  0  0  0  0  0  0999 V2000
   26.5368   79.3495    0.0000 C   0  0  0  0  0  0  0  0  0  0  0  0
   26.5368   72.2805    0.0000 C   0  0  0  0  0  0  0  0  0  0  0  0
   32.6588   68.7460    0.0000 C   0  0  0  0  0  0  0  0  0  0  0  0
   38.7807   72.2805    0.0000 C   0  0  0  0  0  0  0  0  0  0  0  0
   38.7807   79.3495    0.0000 C   0  0  0  0  0  0  0  0  0  0  0  0
   32.6588   82.8840    0.0000 C   0  0  0  0  0  0  0  0  0  0  0  0
   44.9026   82.8840    0.0000 C   0  0  0  0  0  0  0  0  0  0  0  0
   51.0246   79.3495    0.0000 C   0  0  0  0  0  0  0  0  0  0  0  0
   44.9026   89.9530    0.0000 O   0  0  0  0  0  0  0  0  0  0  0  0
   20.4149   68.7460    0.0000 N   0  0  0  0  0  0  0  0  0  0  0  0
   20.4149   61.6770    0.0000 C   0  0  0  0  0  0  0  0  0  0  0  0
   26.5368   58.1425    0.0000 C   0  0  0  0  0  0  0  0  0  0  0  0
   14.2930   72.2805    0.0000 C   0  0  0  0  0  0  0  0  0  0  0  0
    8.1710   68.7460    0.0000 C   0  0  0  0  0  0  0  0  0  0  0  0
   20.4149   82.8840    0.0000 Cl  0  0  0  0  0  0  0  0  0  0  0  0
   26.5368   86.4185    0.0000 Cl  0  0  0  0  0  0  0  0  0  0  0  0
   51.0246   72.2805    0.0000 C   0  0  0  0  0  0  0  0  0  0  0  0
   57.1465   68.7460    0.0000 C   0  0  0  0  0  0  0  0  0  0  0  0
   63.2684   72.2805    0.0000 C   0  0  0  0  0  0  0  0  0  0  0  0
   63.2684   79.3495    0.0000 C   0  0  0  0  0  0  0  0  0  0  0  0
   57.1465   82.8840    0.0000 C   0  0  0  0  0  0  0  0  0  0  0  0
   57.1465   89.9530    0.0000 C   0  0  0  0  0  0  0  0  0  0  0  0
   63.2684   93.4875    0.0000 O   0  0  0  0  0  0  0  0  0  0  0  0
   69.3903   89.9530    0.0000 C   0  0  0  0  0  0  0  0  0  0  0  0
   75.5123   93.4875    0.0000 C   0  0  0  0  0  0  0  0  0  0  0  0
   81.6342   89.9530    0.0000 C   0  0  0  0  0  0  0  0  0  0  0  0
   87.7561   93.4875    0.0000 C   0  0  0  0  0  0  0  0  0  0  0  0
   93.8781   89.9530    0.0000 C   0  0  0  0  0  0  0  0  0  0  0  0
  100.0000   93.4875    0.0000 C   0  0  0  0  0  0  0  0  0  0  0  0
   32.6588   89.9530    0.0000 O   0  0  0  0  0  0  0  0  0  0  0  0
   51.0246   93.4875    0.0000 O   0  0  0  0  0  0  0  0  0  0  0  0
  1  2  1  0  0  0  0
  2  3  2  0  0  0  0
  3  4  1  0  0  0  0
  4  5  2  0  0  0  0
  5  6  1  0  0  0  0
  6  1  1  0  0  0  0
  5  7  1  0  0  0  0
  7  8  1  0  0  0  0
  7  9  2  0  0  0  0
  2 10  1  0  0  0  0
 10 11  1  0  0  0  0
 11 12  1  0  0  0  0
 10 13  1  0  0  0  0
 13 14  1  0  0  0  0
  1 15  1  0  0  0  0
  1 16  1  0  0  0  0
  8 17  2  0  0  0  0
 17 18  1  0  0  0  0
 18 19  2  0  0  0  0
 19 20  1  0  0  0  0
 20 21  2  0  0  0  0
 21  8  1  0  0  0  0
 21 22  1  0  0  0  0
 22 23  1  0  0  0  0
 23 24  1  0  0  0  0
 24 25  1  0  0  0  0
 25 26  1  0  0  0  0
 26 27  1  0  0  0  0
 27 28  1  0  0  0  0
 28 29  1  0  0  0  0
  6 30  2  0  0  0  0
 22 31  2  0  0  0  0
M  ZZC   1 1
M  ZZC   2 2
M  ZZC   3 3
M  ZZC   4 4
M  ZZC   5 5
M  ZZC   6 6
M  ZZC   7 7
M  ZZC   8 8
M  ZZC   9 9
M  ZZC  10 10
M  ZZC  11 12
M  ZZC  12 14
M  ZZC  13 11
M  ZZC  14 13
M  ZZC  15 31
M  ZZC  16 30
M  ZZC  17 15
M  ZZC  18 16
M  ZZC  19 17
M  ZZC  20 18
M  ZZC  21 19
M  ZZC  22 21
M  ZZC  23 23
M  ZZC  24 24
M  ZZC  25 25
M  ZZC  26 26
M  ZZC  27 27
M  ZZC  28 28
M  ZZC  29 29
M  ZZC  30 30
M  ZZC  31 22
M  END