
  E 2024-011052411512D

 14 15  0  0  0  0  0  0  0  0999 V2000
    7.7768    0.0000    0.0000 C   0  0  0  0  0  0  0  0  0  0  0  0
    6.5644    0.7000    0.0000 C   0  0  0  0  0  0  0  0  0  0  0  0
    6.5644    2.1000    0.0000 C   0  0  0  0  0  0  0  0  0  0  0  0
    5.3519    2.8000    0.0000 C   0  0  0  0  0  0  0  0  0  0  0  0
    4.1395    2.1000    0.0000 C   0  0  0  0  0  0  0  0  0  0  0  0
    4.1395    0.7000    0.0000 C   0  0  0  0  0  0  0  0  0  0  0  0
    5.3519    0.0000    0.0000 C   0  0  0  0  0  0  0  0  0  0  0  0
    2.9270    2.8000    0.0000 S   0  0  0  0  0  0  0  0  0  0  0  0
    3.6270    4.0124    0.0000 O   0  0  0  0  0  0  0  0  0  0  0  0
    2.2270    4.0124    0.0000 O   0  0  0  0  0  0  0  0  0  0  0  0
    1.7146    2.1000    0.0000 N   0  0  0  0  0  0  0  0  0  0  0  0
    0.3623    2.4623    0.0000 C   0  0  0  0  0  0  0  0  0  0  0  0
    0.0000    1.1100    0.0000 C   0  0  0  0  0  0  0  0  0  0  0  0
    1.3523    0.7477    0.0000 C   0  0  0  0  0  0  0  0  0  0  0  0
  2  1  1  0  0  0  0
  3  2  2  0  0  0  0
  4  3  1  0  0  0  0
  5  4  2  0  0  0  0
  6  5  1  0  0  0  0
  7  6  2  0  0  0  0
  7  2  1  0  0  0  0
  8  5  1  0  0  0  0
  9  8  2  0  0  0  0
 10  8  2  0  0  0  0
 11  8  1  0  0  0  0
 12 11  1  0  0  0  0
 13 12  1  0  0  0  0
 14 13  1  0  0  0  0
 14 11  1  0  0  0  0
M  END