
  Mnova   09232418562D

 37 40  0  0  0  0  0  0  0  0999 V2000
    0.0000    0.0000    0.0000 C   0  0  0  0  0  0  0  0  0  0  0  0
    0.0308    1.8002    0.0000 C   0  0  0  0  0  0  0  0  0  0  0  0
   -1.5789    2.7296    0.0000 C   0  0  0  0  0  0  0  0  0  0  0  0
   -1.5789    4.5884    0.0000 C   0  0  0  0  0  0  0  0  0  0  0  0
    0.0308    5.5178    0.0000 C   0  0  0  0  0  0  0  0  0  0  0  0
    1.6405    4.5884    0.0000 C   0  0  0  0  0  0  0  0  0  0  0  0
    1.6405    2.7296    0.0000 C   0  0  0  0  0  0  0  0  0  0  0  0
    3.2501    1.8002    0.0000 C   0  0  0  0  0  0  0  0  0  0  0  0
    3.2503   -0.0585    0.0000 C   0  0  0  0  0  0  0  0  0  0  0  0
    4.8600   -0.9879    0.0000 C   0  0  0  0  0  0  0  0  0  0  0  0
    6.4697   -0.0585    0.0000 C   0  0  0  0  0  0  0  0  0  0  0  0
    6.4697    1.8002    0.0000 C   0  0  0  0  0  0  0  0  0  0  0  0
    4.8600    2.7296    0.0000 C   0  0  0  0  0  0  0  0  0  0  0  0
    8.0794    2.7296    0.0000 C   0  0  0  0  0  0  0  0  0  0  0  0
    9.6893    1.8002    0.0000 O   0  0  0  0  0  0  0  0  0  0  0  0
   11.2990    2.7296    0.0000 C   0  0  0  0  0  0  0  0  0  0  0  0
   12.9087    1.8002    0.0000 C   0  0  0  0  0  0  0  0  0  0  0  0
   14.5184    2.7296    0.0000 C   0  0  0  0  0  0  0  0  0  0  0  0
   14.5184    4.5884    0.0000 C   0  0  0  0  0  0  0  0  0  0  0  0
   12.9087    5.5178    0.0000 C   0  0  0  0  0  0  0  0  0  0  0  0
   11.2990    4.5884    0.0000 C   0  0  0  0  0  0  0  0  0  0  0  0
   16.2863    5.1628    0.0000 C   0  0  0  0  0  0  0  0  0  0  0  0
   17.3788    3.6590    0.0000 C   0  0  0  0  0  0  0  0  0  0  0  0
   16.2863    2.1553    0.0000 O   0  0  0  0  0  0  0  0  0  0  0  0
   16.8606    6.9306    0.0000 C   0  0  0  0  0  0  0  0  0  0  0  0
   18.6787    7.3171    0.0000 C   0  0  0  0  0  0  0  0  0  0  0  0
   19.9226    5.9358    0.0000 O   0  0  0  0  0  0  0  0  0  0  0  0
   19.2532    9.0849    0.0000 O   0  0  0  0  0  0  0  0  0  0  0  0
    3.1931    5.7549    0.0000 C   0  0  0  0  0  0  0  0  0  0  0  0
   -3.6155    5.5093    0.0000 O   0  0  0  0  0  0  0  0  0  0  0  0
   -5.0120    4.6040    0.0000 C   0  0  0  0  0  0  0  0  0  0  0  0
   -6.4382    5.4951    0.0000 C   0  0  0  0  0  0  0  0  0  0  0  0
   -7.8550    4.5091    0.0000 C   0  0  0  0  0  0  0  0  0  0  0  0
   -7.6405    2.4639    0.0000 S   0  0  0  0  0  0  0  0  0  0  0  0
   -6.1013    2.5125    0.0000 O   0  0  0  0  0  0  0  0  0  0  0  0
   -9.3622    2.4758    0.0000 O   0  0  0  0  0  0  0  0  0  0  0  0
   -7.6286    0.4996    0.0000 C   0  0  0  0  0  0  0  0  0  0  0  0
  1  2  1  0  0  0  0
  2  3  2  0  0  0  0
  3  4  1  0  0  0  0
  4  5  2  0  0  0  0
  5  6  1  0  0  0  0
  6  7  2  0  0  0  0
  7  2  1  0  0  0  0
  7  8  1  0  0  0  0
  8  9  2  0  0  0  0
  9 10  1  0  0  0  0
 10 11  2  0  0  0  0
 11 12  1  0  0  0  0
 12 13  2  0  0  0  0
 13  8  1  0  0  0  0
 12 14  1  0  0  0  0
 14 15  1  0  0  0  0
 15 16  1  0  0  0  0
 16 17  2  0  0  0  0
 17 18  1  0  0  0  0
 18 19  2  0  0  0  0
 19 20  1  0  0  0  0
 20 21  2  0  0  0  0
 21 16  1  0  0  0  0
 22 19  1  6  0  0  0
 22 23  1  0  0  0  0
 23 24  1  0  0  0  0
 24 18  1  0  0  0  0
 22 25  1  0  0  0  0
 25 26  1  0  0  0  0
 26 27  2  0  0  0  0
 26 28  1  0  0  0  0
  6 29  1  0  0  0  0
  4 30  1  0  0  0  0
 30 31  1  0  0  0  0
 31 32  1  0  0  0  0
 32 33  1  0  0  0  0
 33 34  1  0  0  0  0
 34 35  2  0  0  0  0
 34 36  2  0  0  0  0
 34 37  1  0  0  0  0
M  ZZC   1 29
M  ZZC   2 23
M  ZZC   3 24
M  ZZC   4 25
M  ZZC   5 26
M  ZZC   6 27
M  ZZC   7 22
M  ZZC   8 17
M  ZZC   9 18
M  ZZC  10 19
M  ZZC  11 20
M  ZZC  12 15
M  ZZC  13 16
M  ZZC  14 14
M  ZZC  15 13
M  ZZC  16 7
M  ZZC  17 6
M  ZZC  18 2
M  ZZC  19 3
M  ZZC  20 9
M  ZZC  21 8
M  ZZC  22 4
M  ZZC  23 5
M  ZZC  24 1
M  ZZC  25 10
M  ZZC  26 11
M  ZZC  27 21
M  ZZC  28 12
M  ZZC  29 28
M  ZZC  30 30
M  ZZC  31 31
M  ZZC  32 32
M  ZZC  33 33
M  ZZC  34 34
M  ZZC  35 35
M  ZZC  36 36
M  ZZC  37 37
M  END