
  CDK     07241414162D

 15 15  0  0  0  0  0  0  0  0999 V2000
  119.2168   24.4681    0.0000 C   0  0  0  0  0  0  0  0  0  0  0  0
  133.9802   50.3256    0.0000 C   0  0  0  0  0  0  0  0  0  0  0  0
  118.9590   76.0081    0.0000 C   0  0  0  0  0  0  0  0  0  0  0  0
   89.1989   75.8560    0.0000 C   0  0  0  0  0  0  0  0  0  0  0  0
   74.4583   49.9946    0.0000 C   0  0  0  0  0  0  0  0  0  0  0  0
   89.5382   24.3297    0.0000 C   0  0  0  0  0  0  0  0  0  0  0  0
   44.7496   49.7363    0.0000 C   0  0  0  0  0  0  0  0  0  0  0  0
   29.8364   24.0397    0.0000 C   0  0  0  0  0  0  0  0  0  0  0  0
    0.0000   24.6227    0.0000 C   0  0  0  0  0  0  0  0  0  0  0  0
   43.5948   -2.2988    0.0000 C   0  0  0  0  0  0  0  0  0  0  0  0
  163.7130   50.3256    0.0000 C   0  0  0  0  0  0  0  0  0  0  0  0
  178.8294   24.6864    0.0000 C   0  0  0  0  0  0  0  0  0  0  0  0
  178.4289   76.2205    0.0000 C   0  0  0  0  0  0  0  0  0  0  0  0
  165.1982   -1.6987    0.0000 O   0  0  0  0  0  0  0  0  0  0  0  0
  208.6714   25.4125    0.0000 O   0  0  0  0  0  0  0  0  0  0  0  0
  1  2  2  0  0  0  0
  2  3  1  0  0  0  0
  3  4  2  0  0  0  0
  4  5  1  0  0  0  0
  5  6  2  0  0  0  0
  6  1  1  0  0  0  0
  5  7  1  0  0  0  0
  7  8  1  0  0  0  0
  8  9  1  0  0  0  0
  8 10  1  0  0  0  0
  2 11  1  0  0  0  0
 11 12  1  0  0  0  0
 11 13  1  0  0  0  0
 12 14  2  0  0  0  0
 12 15  1  0  0  0  0
M  END