
  Mrv2011 09172419422D

 32 35  0  0  0  0  0  0  0  0999 V2000
    0.7249    3.2803    0.0000 C   0  0  0  0  0  0  0  0  0  0  0  0
    2.1539    3.2803    0.0000 C   0  0  0  0  0  0  0  0  0  0  0  0
    3.6808    0.2495    0.0000 C   0  0  0  0  0  0  0  0  0  0  0  0
    3.1505    1.1680    0.0000 C   0  0  0  0  0  0  0  0  0  0  0  0
    1.4222   -2.0724    0.0000 C   0  0  0  0  0  0  0  0  0  0  0  0
    1.4394    2.0428    0.0000 C   0  0  0  0  0  0  0  0  0  0  0  0
   -2.1330   -1.6697    0.0000 C   0  0  0  0  0  0  0  0  0  0  0  0
   -2.8474   -0.4322    0.0000 C   0  0  0  0  0  0  0  0  0  0  0  0
   -2.8474   -2.0822    0.0000 C   0  0  0  0  0  0  0  0  0  0  0  0
   -3.5619   -0.8447    0.0000 C   0  0  0  0  0  0  0  0  0  0  0  0
    0.7249    1.6303    0.0000 C   0  0  0  0  0  0  0  0  0  0  0  0
    2.1539   -0.8447    0.0000 C   0  0  0  0  0  0  0  0  0  0  0  0
    2.8683   -0.4322    0.0000 C   0  0  0  0  0  0  0  0  0  0  0  0
    1.4394    2.8678    0.0000 C   0  0  0  0  0  0  0  0  0  0  0  0
   -2.1330   -0.8447    0.0000 C   0  0  0  0  0  0  0  0  0  0  0  0
   -3.5619   -1.6697    0.0000 C   0  0  0  0  0  0  0  0  0  0  0  0
    0.7249    0.8053    0.0000 C   0  0  0  0  0  0  0  0  0  0  0  0
    1.4394   -0.4322    0.0000 C   0  0  0  0  0  0  0  0  0  0  0  0
   -1.4185   -0.4322    0.0000 C   0  0  0  0  0  0  0  0  0  0  0  0
    0.0104   -0.4322    0.0000 C   0  0  0  0  0  0  0  0  0  0  0  0
   -0.7040   -0.8447    0.0000 C   0  0  0  0  0  0  0  0  0  0  0  0
    1.4394    0.3928    0.0000 C   0  0  0  0  0  0  0  0  0  0  0  0
    0.7249   -0.8447    0.0000 C   0  0  0  0  0  0  0  0  0  0  0  0
    0.0104    0.3928    0.0000 C   0  0  0  0  0  0  0  0  0  0  0  0
   -1.4185    0.3928    0.0000 C   0  0  0  0  0  0  0  0  0  0  0  0
    2.8683    0.3928    0.0000 C   0  0  0  0  0  0  0  0  0  0  0  0
   -4.2764   -2.0822    0.0000 O   0  0  0  0  0  0  0  0  0  0  0  0
   -0.7040   -1.6697    0.0000 O   0  0  0  0  0  0  0  0  0  0  0  0
   -2.1330    0.8053    0.0000 O   0  0  0  0  0  0  0  0  0  0  0  0
    0.7249   -1.6697    0.0000 O   0  0  0  0  0  0  0  0  0  0  0  0
   -0.7040    0.8053    0.0000 O   0  0  0  0  0  0  0  0  0  0  0  0
    2.1539    0.8053    0.0000 O   0  0  0  0  0  0  0  0  0  0  0  0
  6 14  2  0  0  0  0
  7  9  2  0  0  0  0
  8 10  1  0  0  0  0
  9 16  1  0  0  0  0
 10 16  2  0  0  0  0
 11  6  1  0  0  0  0
 13 12  2  0  0  0  0
 14  1  1  0  0  0  0
 14  2  1  0  0  0  0
 15  7  1  0  0  0  0
 15  8  2  0  0  0  0
 17 11  1  0  0  0  0
 17 24  1  0  0  0  0
 18 12  1  0  0  0  0
 18 23  2  0  0  0  0
 19 15  1  0  0  0  0
 19 25  1  0  0  0  0
 20 21  1  0  0  0  0
 20 23  1  0  0  0  0
 21 19  2  0  0  0  0
 22 17  2  0  0  0  0
 22 18  1  0  0  0  0
 24 20  2  0  0  0  0
 26  3  1  0  0  0  0
 26  4  1  0  0  0  0
 26 13  1  0  0  0  0
 27 16  1  0  0  0  0
 28 21  1  0  0  0  0
 29 25  2  0  0  0  0
 30  5  1  0  0  0  0
 30 23  1  0  0  0  0
 31 24  1  0  0  0  0
 31 25  1  0  0  0  0
 32 22  1  0  0  0  0
 32 26  1  0  0  0  0
M  END