
  Mnova   04102612322D

  8  8  0  0  0  0  0  0  0  0999 V2000
    0.0000    0.0000    0.0000 C   0  0  0  0  0  0  0  0  0  0  0  0
    1.3337   -0.7700    0.0000 C   0  0  0  0  0  0  0  0  0  0  0  0
    1.3337   -2.3100    0.0000 C   0  0  0  0  0  0  0  0  0  0  0  0
    0.0000   -3.0800    0.0000 C   0  0  0  0  0  0  0  0  0  0  0  0
   -1.3337   -2.3100    0.0000 C   0  0  0  0  0  0  0  0  0  0  0  0
   -1.3337   -0.7700    0.0000 C   0  0  0  0  0  0  0  0  0  0  0  0
    0.0502    1.5392    0.0000 C   0  0  0  0  0  0  0  0  0  0  0  0
   -0.9343    2.7233    0.0000 C   0  0  0  0  0  0  0  0  0  0  0  0
  1  2  2  0  0  0  0
  2  3  1  0  0  0  0
  3  4  2  0  0  0  0
  4  5  1  0  0  0  0
  5  6  2  0  0  0  0
  1  6  1  0  0  0  0
  1  7  1  0  0  0  0
  7  8  1  0  0  0  0
M  END