
  E 2024-012092511122D

 35 38  0  0  0  0  0  0  0  0999 V2000
  -33.5376   -8.4590    0.0000 C   0  0  0  0  0  0  0  0  0  0  0  0
  -33.5376    1.0455    0.0000 C   0  0  0  0  0  0  0  0  0  0  0  0
  -41.7691    5.7977    0.0000 C   0  0  0  0  0  0  0  0  0  0  0  0
  -50.0000    1.0455    0.0000 C   0  0  0  0  0  0  0  0  0  0  0  0
  -50.0000   -8.4590    0.0000 C   0  0  0  0  0  0  0  0  0  0  0  0
  -41.7691  -13.2112    0.0000 C   0  0  0  0  0  0  0  0  0  0  0  0
  -25.3067    5.7977    0.0000 C   0  0  0  0  0  0  0  0  0  0  0  0
  -17.0758    1.0455    0.0000 C   0  0  0  0  0  0  0  0  0  0  0  0
  -16.7690   -8.4542    0.0000 N   0  0  0  0  0  0  0  0  0  0  0  0
   -7.7125    2.6803    0.0000 C   0  0  0  0  0  0  0  0  0  0  0  0
   -7.2658   -8.5961    0.0000 C   0  0  0  0  0  0  0  0  0  0  0  0
   -7.6134   12.1841    0.0000 C   0  0  0  0  0  0  0  0  0  0  0  0
    0.6670   16.8501    0.0000 C   0  0  0  0  0  0  0  0  0  0  0  0
    9.4757   12.1671    0.0000 C   0  0  0  0  0  0  0  0  0  0  0  0
    9.4933    2.5615    0.0000 C   0  0  0  0  0  0  0  0  0  0  0  0
   -0.1069   -3.0197    0.0000 C   0  0  0  0  0  0  0  0  0  0  0  0
   -7.2013  -18.1006    0.0000 O   0  0  0  0  0  0  0  0  0  0  0  0
    0.0057  -11.9197    0.0000 O   0  0  0  0  0  0  0  0  0  0  0  0
    8.8585  -16.8494    0.0000 C   0  0  0  0  0  0  0  0  0  0  0  0
   17.0758  -12.0727    0.0000 C   0  0  0  0  0  0  0  0  0  0  0  0
   17.0466   -2.5682    0.0000 C   0  0  0  0  0  0  0  0  0  0  0  0
   25.3209  -16.7998    0.0000 C   0  0  0  0  0  0  0  0  0  0  0  0
   33.5376  -12.0225    0.0000 C   0  0  0  0  0  0  0  0  0  0  0  0
   33.5091   -2.5187    0.0000 C   0  0  0  0  0  0  0  0  0  0  0  0
   25.2639    2.2091    0.0000 C   0  0  0  0  0  0  0  0  0  0  0  0
   41.7834  -16.7503    0.0000 C   0  0  0  0  0  0  0  0  0  0  0  0
   50.0000  -11.9729    0.0000 C   0  0  0  0  0  0  0  0  0  0  0  0
   49.9715   -2.4684    0.0000 C   0  0  0  0  0  0  0  0  0  0  0  0
   41.7257    2.2587    0.0000 C   0  0  0  0  0  0  0  0  0  0  0  0
    0.7471   26.3539    0.0000 C   0  0  0  0  0  0  0  0  0  0  0  0
   16.9543   17.0402    0.0000 O   0  0  0  0  0  0  0  0  0  0  0  0
   41.6972   11.7631    0.0000 C   0  0  0  0  0  0  0  0  0  0  0  0
   33.4968  -21.5270    0.0000 O   0  0  0  0  0  0  0  0  0  0  0  0
    8.8877  -26.3539    0.0000 O   0  0  0  0  0  0  0  0  0  0  0  0
  -15.7683   17.0877    0.0000 C   0  0  0  0  0  0  0  0  0  0  0  0
  1  2  1  0  0  0  0
  2  3  2  0  0  0  0
  3  4  1  0  0  0  0
  4  5  2  0  0  0  0
  5  6  1  0  0  0  0
  6  1  2  0  0  0  0
  2  7  1  0  0  0  0
  7  8  1  0  0  0  0
  8  9  1  0  0  0  0
  8 10  1  0  0  0  0
  9 11  1  0  0  0  0
 10 12  1  0  0  0  0
 12 13  1  0  0  0  0
 13 14  1  0  0  0  0
 14 15  1  0  0  0  0
 10 16  1  0  0  0  0
 16 15  1  0  0  0  0
 16 11  1  0  0  0  0
 11 17  2  0  0  0  0
 18 19  1  0  0  0  0
 19 20  1  0  0  0  0
 15 21  1  0  0  0  0
 16 18  1  0  0  0  0
 22 23  1  0  0  0  0
 24 25  1  0  0  0  0
 21 25  2  0  0  0  0
 20 22  2  0  0  0  0
 26 27  1  0  0  0  0
 27 28  1  0  0  0  0
 28 29  1  0  0  0  0
 24 29  1  0  0  0  0
 23 26  1  0  0  0  0
 13 30  2  0  0  0  0
 14 31  1  0  0  0  0
 29 32  1  0  0  0  0
 23 33  1  0  0  0  0
 19 34  2  0  0  0  0
 12 35  1  0  0  0  0
M  ZZC   1 6'
M  ZZC   2 1'
M  ZZC   3 2'
M  ZZC   4 3'
M  ZZC   5 4'
M  ZZC   6 5'
M  ZZC   7 10
M  ZZC   8 3
M  ZZC   9 2
M  ZZC  10 4
M  ZZC  11 1
M  ZZC  12 5
M  ZZC  13 6
M  ZZC  14 7
M  ZZC  15 8
M  ZZC  16 9
M  ZZC  17 26
M  ZZC  18 24
M  ZZC  19 23
M  ZZC  20 22
M  ZZC  21 13
M  ZZC  22 21
M  ZZC  23 20
M  ZZC  24 15
M  ZZC  25 14
M  ZZC  26 19
M  ZZC  27 18
M  ZZC  28 17
M  ZZC  29 16
M  ZZC  30 12
M  ZZC  31 27
M  ZZC  32 25
M  ZZC  33 28
M  ZZC  34 29
M  ZZC  35 11
M  END