
  E 2024-004112518052D

 17 18  0  0  0  0  0  0  0  0999 V2000
    7.2721    3.5057    0.0000 C   0  0  0  0  0  0  0  0  0  0  0  0
    7.2721    4.9057    0.0000 C   0  0  0  0  0  0  0  0  0  0  0  0
    6.0596    5.6057    0.0000 C   0  0  0  0  0  0  0  0  0  0  0  0
    4.8472    4.9057    0.0000 C   0  0  0  0  0  0  0  0  0  0  0  0
    4.8472    3.5057    0.0000 C   0  0  0  0  0  0  0  0  0  0  0  0
    6.0596    2.8057    0.0000 C   0  0  0  0  0  0  0  0  0  0  0  0
    3.6366    2.8026    0.0000 S   0  0  0  0  0  0  0  0  0  0  0  0
    2.4249    2.1013    0.0000 N   0  0  0  0  0  0  0  0  0  0  0  0
    1.2117    2.8000    0.0000 C   0  0  0  0  0  0  0  0  0  0  0  0
    0.0000    2.0987    0.0000 C   0  0  0  0  0  0  0  0  0  0  0  0
    0.0015    0.6987    0.0000 C   0  0  0  0  0  0  0  0  0  0  0  0
    1.2147    0.0000    0.0000 C   0  0  0  0  0  0  0  0  0  0  0  0
    2.4264    0.7013    0.0000 C   0  0  0  0  0  0  0  0  0  0  0  0
    8.4845    5.6057    0.0000 C   0  0  0  0  0  0  0  0  0  0  0  0
    3.6396    0.0026    0.0000 C   0  0  0  0  0  0  0  0  0  0  0  0
    2.8233    3.9422    0.0000 O   0  0  0  0  0  0  0  0  0  0  0  0
    4.4613    1.6713    0.0000 O   0  0  0  0  0  0  0  0  0  0  0  0
  1  2  1  0  0  0  0
  2  3  2  0  0  0  0
  3  4  1  0  0  0  0
  4  5  2  0  0  0  0
  5  6  1  0  0  0  0
  6  1  2  0  0  0  0
  5  7  1  0  0  0  0
  7  8  1  0  0  0  0
  9 10  1  0  0  0  0
 10 11  1  0  0  0  0
 11 12  1  0  0  0  0
 12 13  1  0  0  0  0
  8 13  1  0  0  0  0
  8  9  1  0  0  0  0
  2 14  1  0  0  0  0
 13 15  1  0  0  0  0
  7 16  2  0  0  0  0
  7 17  2  0  0  0  0
M  END