 
  ChemDraw01242513192D
 
144164  0  0  0  0  0  0  0  0999 V2000
    0.0000    0.0000    0.0000 C   0  0  0  0  0  0  0  0  0  0  0  0
   -1.3337    0.7701    0.0000 N   0  0  0  0  0  0  0  0  0  0  0  0
   -2.6676    0.0000    0.0000 C   0  0  0  0  0  0  0  0  0  0  0  0
   -4.0015    0.7701    0.0000 C   0  0  0  0  0  0  0  0  0  0  0  0
   -4.0015    2.3103    0.0000 C   0  0  0  0  0  0  0  0  0  0  0  0
   -5.3352    3.0803    0.0000 C   0  0  0  0  0  0  0  0  0  0  0  0
   -6.6690    2.3103    0.0000 C   0  0  0  0  0  0  0  0  0  0  0  0
   -6.6690    0.7701    0.0000 C   0  0  0  0  0  0  0  0  0  0  0  0
   -5.3352    0.0000    0.0000 C   0  0  0  0  0  0  0  0  0  0  0  0
   -5.3352    4.6205    0.0000 C   0  0  0  0  0  0  0  0  0  0  0  0
   -4.0015    5.3906    0.0000 C   0  0  0  0  0  0  0  0  0  0  0  0
   -4.0015    6.9308    0.0000 C   0  0  0  0  0  0  0  0  0  0  0  0
   -5.3352    7.7009    0.0000 C   0  0  0  0  0  0  0  0  0  0  0  0
   -6.6690    6.9308    0.0000 C   0  0  0  0  0  0  0  0  0  0  0  0
   -6.6690    5.3906    0.0000 C   0  0  0  0  0  0  0  0  0  0  0  0
   -5.3352    9.2410    0.0000 C   0  0  0  0  0  0  0  0  0  0  0  0
   -4.0015   10.0111    0.0000 C   0  0  0  0  0  0  0  0  0  0  0  0
   -4.0015   11.5513    0.0000 C   0  0  0  0  0  0  0  0  0  0  0  0
   -5.3352   12.3214    0.0000 C   0  0  0  0  0  0  0  0  0  0  0  0
   -6.6690   11.5513    0.0000 C   0  0  0  0  0  0  0  0  0  0  0  0
   -6.6690   10.0111    0.0000 C   0  0  0  0  0  0  0  0  0  0  0  0
   -2.6676   12.3214    0.0000 C   0  0  0  0  0  0  0  0  0  0  0  0
   -1.3337   11.5513    0.0000 N   0  0  0  0  0  0  0  0  0  0  0  0
    0.0002   12.3214    0.0000 C   0  0  0  0  0  0  0  0  0  0  0  0
    0.0000   -1.5402    0.0000 C   0  0  0  0  0  0  0  0  0  0  0  0
    1.3339   -2.3103    0.0000 C   0  0  0  0  0  0  0  0  0  0  0  0
    2.6678   -1.5402    0.0000 C   0  0  0  0  0  0  0  0  0  0  0  0
    2.6678    0.0000    0.0000 C   0  0  0  0  0  0  0  0  0  0  0  0
    1.3339    0.7701    0.0000 C   0  0  0  0  0  0  0  0  0  0  0  0
    4.0015   -2.3103    0.0000 C   0  0  0  0  0  0  0  0  0  0  0  0
    5.3353   -1.5402    0.0000 C   0  0  0  0  0  0  0  0  0  0  0  0
    5.3353    0.0000    0.0000 C   0  0  0  0  0  0  0  0  0  0  0  0
    4.0015    0.7701    0.0000 C   0  0  0  0  0  0  0  0  0  0  0  0
    6.6692   -2.3103    0.0000 C   0  0  0  0  0  0  0  0  0  0  0  0
    8.0031   -1.5402    0.0000 C   0  0  0  0  0  0  0  0  0  0  0  0
    8.0031    0.0000    0.0000 C   0  0  0  0  0  0  0  0  0  0  0  0
    6.6692    0.7701    0.0000 C   0  0  0  0  0  0  0  0  0  0  0  0
    1.3339   11.5513    0.0000 C   0  0  0  0  0  0  0  0  0  0  0  0
    2.6678   12.3214    0.0000 C   0  0  0  0  0  0  0  0  0  0  0  0
    2.6678   13.8616    0.0000 C   0  0  0  0  0  0  0  0  0  0  0  0
    1.3339   14.6316    0.0000 C   0  0  0  0  0  0  0  0  0  0  0  0
    0.0002   13.8616    0.0000 C   0  0  0  0  0  0  0  0  0  0  0  0
    4.0016   11.5513    0.0000 C   0  0  0  0  0  0  0  0  0  0  0  0
    5.3353   12.3214    0.0000 C   0  0  0  0  0  0  0  0  0  0  0  0
    5.3353   13.8616    0.0000 C   0  0  0  0  0  0  0  0  0  0  0  0
    4.0016   14.6316    0.0000 C   0  0  0  0  0  0  0  0  0  0  0  0
    6.6692   11.5513    0.0000 C   0  0  0  0  0  0  0  0  0  0  0  0
    8.0031   12.3214    0.0000 C   0  0  0  0  0  0  0  0  0  0  0  0
    8.0031   13.8616    0.0000 C   0  0  0  0  0  0  0  0  0  0  0  0
    6.6692   14.6316    0.0000 C   0  0  0  0  0  0  0  0  0  0  0  0
    9.3370   11.5513    0.0000 N   0  0  0  0  0  0  0  0  0  0  0  0
   10.6707   12.3214    0.0000 C   0  0  0  0  0  0  0  0  0  0  0  0
   12.0046   11.5511    0.0000 C   0  0  0  0  0  0  0  0  0  0  0  0
   12.0046   10.0109    0.0000 C   0  0  0  0  0  0  0  0  0  0  0  0
   13.3385    9.2408    0.0000 C   0  0  0  0  0  0  0  0  0  0  0  0
   14.6722   10.0109    0.0000 C   0  0  0  0  0  0  0  0  0  0  0  0
   14.6722   11.5511    0.0000 C   0  0  0  0  0  0  0  0  0  0  0  0
   13.3385   12.3212    0.0000 C   0  0  0  0  0  0  0  0  0  0  0  0
   13.3385    7.7007    0.0000 C   0  0  0  0  0  0  0  0  0  0  0  0
   12.0046    6.9306    0.0000 C   0  0  0  0  0  0  0  0  0  0  0  0
   12.0046    5.3904    0.0000 C   0  0  0  0  0  0  0  0  0  0  0  0
   13.3385    4.6203    0.0000 C   0  0  0  0  0  0  0  0  0  0  0  0
   14.6722    5.3904    0.0000 C   0  0  0  0  0  0  0  0  0  0  0  0
   14.6722    6.9306    0.0000 C   0  0  0  0  0  0  0  0  0  0  0  0
   13.3385    3.0802    0.0000 C   0  0  0  0  0  0  0  0  0  0  0  0
   12.0046    2.3101    0.0000 C   0  0  0  0  0  0  0  0  0  0  0  0
   12.0046    0.7699    0.0000 C   0  0  0  0  0  0  0  0  0  0  0  0
   13.3383   -0.0002    0.0000 C   0  0  0  0  0  0  0  0  0  0  0  0
   14.6722    0.7699    0.0000 C   0  0  0  0  0  0  0  0  0  0  0  0
   14.6722    2.3101    0.0000 C   0  0  0  0  0  0  0  0  0  0  0  0
   10.6707    0.0000    0.0000 C   0  0  0  0  0  0  0  0  0  0  0  0
    9.3368    0.7701    0.0000 N   0  0  0  0  0  0  0  0  0  0  0  0
   -2.6676   -1.5402    0.0000 O   0  0  0  0  0  0  0  0  0  0  0  0
   -2.6676   13.8616    0.0000 O   0  0  0  0  0  0  0  0  0  0  0  0
   10.6707   13.8616    0.0000 O   0  0  0  0  0  0  0  0  0  0  0  0
   10.6707   -1.5402    0.0000 O   0  0  0  0  0  0  0  0  0  0  0  0
    4.0015    2.3103    0.0000 C   0  0  0  0  0  0  0  0  0  0  0  0
    4.0016   10.0111    0.0000 C   0  0  0  0  0  0  0  0  0  0  0  0
    2.6678    9.2410    0.0000 O   0  0  0  0  0  0  0  0  0  0  0  0
    2.6678    7.7009    0.0000 C   0  0  0  0  0  0  0  0  0  0  0  0
    5.3353    9.2410    0.0000 O   0  0  0  0  0  0  0  0  0  0  0  0
    5.3353    3.0803    0.0000 O   0  0  0  0  0  0  0  0  0  0  0  0
    5.3353    4.6205    0.0000 C   0  0  0  0  0  0  0  0  0  0  0  0
    2.6678    3.0803    0.0000 O   0  0  0  0  0  0  0  0  0  0  0  0
   16.0060   -0.0002    0.0000 C   0  0  0  0  0  0  0  0  0  0  0  0
   15.6075   -1.4877    0.0000 C   0  0  0  0  0  0  0  0  0  0  0  0
   17.4937    0.3986    0.0000 C   0  0  0  0  0  0  0  0  0  0  0  0
   17.0952   -1.0891    0.0000 C   0  0  0  0  0  0  0  0  0  0  0  0
   16.0060   12.3212    0.0000 C   0  0  0  0  0  0  0  0  0  0  0  0
   16.4046   13.8089    0.0000 C   0  0  0  0  0  0  0  0  0  0  0  0
   17.3399   11.5511    0.0000 C   0  0  0  0  0  0  0  0  0  0  0  0
   17.3399   13.0913    0.0000 C   0  0  0  0  0  0  0  0  0  0  0  0
   -8.0029   12.3214    0.0000 C   0  0  0  0  0  0  0  0  0  0  0  0
   -8.0029   13.8616    0.0000 C   0  0  0  0  0  0  0  0  0  0  0  0
   -9.4906   12.7200    0.0000 C   0  0  0  0  0  0  0  0  0  0  0  0
   -9.3366   11.5513    0.0000 C   0  0  0  0  0  0  0  0  0  0  0  0
   -8.0029    0.0000    0.0000 C   0  0  0  0  0  0  0  0  0  0  0  0
   -8.0029   -1.5402    0.0000 C   0  0  0  0  0  0  0  0  0  0  0  0
   -9.5431    0.0000    0.0000 C   0  0  0  0  0  0  0  0  0  0  0  0
   -9.0919   -1.0891    0.0000 C   0  0  0  0  0  0  0  0  0  0  0  0
  -11.5810   -2.3411    0.0000 C   0  0  0  0  0  0  0  0  0  0  0  0
  -11.5810   -0.8009    0.0000 C   0  0  0  0  0  0  0  0  0  0  0  0
  -12.9147   -0.0308    0.0000 C   0  0  0  0  0  0  0  0  0  0  0  0
  -14.2486   -0.8009    0.0000 C   0  0  0  0  0  0  0  0  0  0  0  0
  -14.2486   -2.3411    0.0000 C   0  0  0  0  0  0  0  0  0  0  0  0
  -12.9147   -3.1111    0.0000 C   0  0  0  0  0  0  0  0  0  0  0  0
  -12.9147    4.6666    0.0000 C   0  0  0  0  0  0  0  0  0  0  0  0
  -11.5810    5.4367    0.0000 C   0  0  0  0  0  0  0  0  0  0  0  0
  -11.5810    6.9769    0.0000 C   0  0  0  0  0  0  0  0  0  0  0  0
  -12.9147    7.7470    0.0000 C   0  0  0  0  0  0  0  0  0  0  0  0
  -14.2486    6.9769    0.0000 C   0  0  0  0  0  0  0  0  0  0  0  0
  -14.2486    5.4367    0.0000 C   0  0  0  0  0  0  0  0  0  0  0  0
  -12.9606   11.2894    0.0000 C   0  0  0  0  0  0  0  0  0  0  0  0
  -11.6267   12.0595    0.0000 C   0  0  0  0  0  0  0  0  0  0  0  0
  -11.6267   13.5996    0.0000 C   0  0  0  0  0  0  0  0  0  0  0  0
  -12.9606   14.3697    0.0000 C   0  0  0  0  0  0  0  0  0  0  0  0
  -14.2945   13.5996    0.0000 C   0  0  0  0  0  0  0  0  0  0  0  0
  -14.2945   12.0595    0.0000 C   0  0  0  0  0  0  0  0  0  0  0  0
  -15.6282   14.3697    0.0000 C   0  0  0  0  0  0  0  0  0  0  0  0
  -15.6282   15.9099    0.0000 C   0  0  0  0  0  0  0  0  0  0  0  0
  -17.1159   14.7685    0.0000 C   0  0  0  0  0  0  0  0  0  0  0  0
  -16.9621   13.5996    0.0000 C   0  0  0  0  0  0  0  0  0  0  0  0
  -15.5824   -3.1111    0.0000 C   0  0  0  0  0  0  0  0  0  0  0  0
  -15.5824   -4.6513    0.0000 C   0  0  0  0  0  0  0  0  0  0  0  0
  -17.1226   -3.1111    0.0000 C   0  0  0  0  0  0  0  0  0  0  0  0
  -16.6714   -4.2003    0.0000 C   0  0  0  0  0  0  0  0  0  0  0  0
  -10.2928   14.3697    0.0000 C   0  0  0  0  0  0  0  0  0  0  0  0
  -10.2928   15.9099    0.0000 N   0  0  0  0  0  0  0  0  0  0  0  0
   -8.9591   16.6800    0.0000 C   0  0  0  0  0  0  0  0  0  0  0  0
  -10.2471   -3.1111    0.0000 C   0  0  0  0  0  0  0  0  0  0  0  0
  -10.2471   -4.6513    0.0000 N   0  0  0  0  0  0  0  0  0  0  0  0
   -8.8454   -5.3365    0.0000 C   0  0  0  0  0  0  0  0  0  0  0  0
   -7.6253   15.9099    0.0000 C   0  0  0  0  0  0  0  0  0  0  0  0
   -6.2914   16.6800    0.0000 C   0  0  0  0  0  0  0  0  0  0  0  0
   -6.2914   18.2201    0.0000 C   0  0  0  0  0  0  0  0  0  0  0  0
   -7.6253   18.9902    0.0000 C   0  0  0  0  0  0  0  0  0  0  0  0
   -8.9591   18.2201    0.0000 C   0  0  0  0  0  0  0  0  0  0  0  0
   -8.9716   -6.8716    0.0000 C   0  0  0  0  0  0  0  0  0  0  0  0
   -7.7055   -7.7483    0.0000 C   0  0  0  0  0  0  0  0  0  0  0  0
   -6.3130   -7.0902    0.0000 C   0  0  0  0  0  0  0  0  0  0  0  0
   -6.1868   -5.5551    0.0000 C   0  0  0  0  0  0  0  0  0  0  0  0
   -7.4531   -4.6784    0.0000 C   0  0  0  0  0  0  0  0  0  0  0  0
   -8.9132   -2.3411    0.0000 O   0  0  0  0  0  0  0  0  0  0  0  0
   -8.9591   13.5996    0.0000 O   0  0  0  0  0  0  0  0  0  0  0  0
  1  2  1  0  0  0  0
  2  3  1  0  0  0  0
  3  4  1  0  0  0  0
  4  5  2  0  0  0  0
  5  6  1  0  0  0  0
  6  7  2  0  0  0  0
  7  8  1  0  0  0  0
  8  9  2  0  0  0  0
  9  4  1  0  0  0  0
  6 10  1  0  0  0  0
 10 11  2  0  0  0  0
 11 12  1  0  0  0  0
 12 13  2  0  0  0  0
 13 14  1  0  0  0  0
 14 15  2  0  0  0  0
 15 10  1  0  0  0  0
 13 16  1  0  0  0  0
 16 17  2  0  0  0  0
 17 18  1  0  0  0  0
 18 19  2  0  0  0  0
 19 20  1  0  0  0  0
 20 21  2  0  0  0  0
 21 16  1  0  0  0  0
 18 22  1  0  0  0  0
 22 23  1  0  0  0  0
 23 24  1  0  0  0  0
  1 25  2  0  0  0  0
 25 26  1  0  0  0  0
 26 27  2  0  0  0  0
 27 28  1  0  0  0  0
 28 29  2  0  0  0  0
 29  1  1  0  0  0  0
 27 30  1  0  0  0  0
 30 31  1  0  0  0  0
 31 32  2  0  0  0  0
 32 33  1  0  0  0  0
 33 28  1  0  0  0  0
 31 34  1  0  0  0  0
 34 35  2  0  0  0  0
 35 36  1  0  0  0  0
 36 37  2  0  0  0  0
 37 32  1  0  0  0  0
 24 38  2  0  0  0  0
 38 39  1  0  0  0  0
 39 40  2  0  0  0  0
 40 41  1  0  0  0  0
 41 42  2  0  0  0  0
 42 24  1  0  0  0  0
 39 43  1  0  0  0  0
 43 44  1  0  0  0  0
 44 45  2  0  0  0  0
 45 46  1  0  0  0  0
 46 40  1  0  0  0  0
 44 47  1  0  0  0  0
 47 48  2  0  0  0  0
 48 49  1  0  0  0  0
 49 50  2  0  0  0  0
 50 45  1  0  0  0  0
 51 52  1  0  0  0  0
 52 53  1  0  0  0  0
 53 54  2  0  0  0  0
 54 55  1  0  0  0  0
 55 56  2  0  0  0  0
 56 57  1  0  0  0  0
 57 58  2  0  0  0  0
 58 53  1  0  0  0  0
 55 59  1  0  0  0  0
 59 60  2  0  0  0  0
 60 61  1  0  0  0  0
 61 62  2  0  0  0  0
 62 63  1  0  0  0  0
 63 64  2  0  0  0  0
 64 59  1  0  0  0  0
 62 65  1  0  0  0  0
 65 66  2  0  0  0  0
 66 67  1  0  0  0  0
 67 68  2  0  0  0  0
 68 69  1  0  0  0  0
 69 70  2  0  0  0  0
 70 65  1  0  0  0  0
 67 71  1  0  0  0  0
 71 72  1  0  0  0  0
 51 48  1  0  0  0  0
 72 36  1  0  0  0  0
  3 73  2  0  0  0  0
 22 74  2  0  0  0  0
 52 75  2  0  0  0  0
 71 76  2  0  0  0  0
 33 77  1  0  0  0  0
 43 78  1  0  0  0  0
 78 79  1  0  0  0  0
 79 80  1  0  0  0  0
 78 81  2  0  0  0  0
 77 82  1  0  0  0  0
 82 83  1  0  0  0  0
 77 84  2  0  0  0  0
 69 85  1  0  0  0  0
 85 86  1  0  0  0  0
 85 87  1  0  0  0  0
 85 88  1  0  0  0  0
 57 89  1  0  0  0  0
 89 90  1  0  0  0  0
 89 91  1  0  0  0  0
 89 92  1  0  0  0  0
 20 93  1  0  0  0  0
 93 94  1  0  0  0  0
 93 95  1  0  0  0  0
 93 96  1  0  0  0  0
  8 97  1  0  0  0  0
 97 98  1  0  0  0  0
 97 99  1  0  0  0  0
 97100  1  0  0  0  0
101102  2  0  0  0  0
102103  1  0  0  0  0
103104  2  0  0  0  0
104105  1  0  0  0  0
105106  2  0  0  0  0
106101  1  0  0  0  0
103107  1  0  0  0  0
107108  2  0  0  0  0
108109  1  0  0  0  0
109110  2  0  0  0  0
110111  1  0  0  0  0
111112  2  0  0  0  0
112107  1  0  0  0  0
110113  1  0  0  0  0
113114  2  0  0  0  0
114115  1  0  0  0  0
115116  2  0  0  0  0
116117  1  0  0  0  0
117118  2  0  0  0  0
118113  1  0  0  0  0
117119  1  0  0  0  0
119120  1  0  0  0  0
119121  1  0  0  0  0
119122  1  0  0  0  0
105123  1  0  0  0  0
123124  1  0  0  0  0
123125  1  0  0  0  0
123126  1  0  0  0  0
115127  1  0  0  0  0
127128  1  0  0  0  0
128129  1  0  0  0  0
101130  1  0  0  0  0
130131  1  0  0  0  0
131132  1  0  0  0  0
129133  2  0  0  0  0
133134  1  0  0  0  0
134135  2  0  0  0  0
135136  1  0  0  0  0
136137  2  0  0  0  0
137129  1  0  0  0  0
134 43  1  0  0  0  0
135 46  1  0  0  0  0
132138  2  0  0  0  0
138139  1  0  0  0  0
139140  2  0  0  0  0
140141  1  0  0  0  0
141142  2  0  0  0  0
142132  1  0  0  0  0
141 33  1  0  0  0  0
140 30  1  0  0  0  0
130143  2  0  0  0  0
127144  2  0  0  0  0
M  END