
  ChemDraw05142415012D

 14 15  0  0  0  0  0  0  0  0999 V2000
   -2.2837   -1.2121    0.0000 C   0  0  0  0  0  0  0  0  0  0  0  0
   -1.4895   -1.4249    0.0000 C   0  0  0  0  0  0  0  0  0  0  0  0
   -1.2767   -0.6307    0.0000 N   0  0  0  0  0  0  0  0  0  0  0  0
   -2.0709   -0.4179    0.0000 C   0  0  0  0  0  0  0  0  0  0  0  0
   -0.5646   -0.2196    0.0000 S   0  0  0  0  0  0  0  0  0  0  0  0
    0.1475    0.1915    0.0000 C   0  0  0  0  0  0  0  0  0  0  0  0
   -0.1535   -0.9316    0.0000 O   0  0  0  0  0  0  0  0  0  0  0  0
    0.8595   -0.2196    0.0000 C   0  0  0  0  0  0  0  0  0  0  0  0
    1.5716    0.1915    0.0000 C   0  0  0  0  0  0  0  0  0  0  0  0
    1.5716    1.0138    0.0000 C   0  0  0  0  0  0  0  0  0  0  0  0
    0.8595    1.4249    0.0000 C   0  0  0  0  0  0  0  0  0  0  0  0
    0.1475    1.0138    0.0000 C   0  0  0  0  0  0  0  0  0  0  0  0
    2.2837    1.4249    0.0000 C   0  0  0  0  0  0  0  0  0  0  0  0
   -0.9757    0.4925    0.0000 O   0  0  0  0  0  0  0  0  0  0  0  0
  1  2  1  0  0  0  0
  2  3  1  0  0  0  0
  3  4  1  0  0  0  0
  4  1  1  0  0  0  0
  3  5  1  0  0  0  0
  5  6  1  0  0  0  0
  5  7  2  0  0  0  0
  6  8  2  0  0  0  0
  8  9  1  0  0  0  0
  9 10  2  0  0  0  0
 10 11  1  0  0  0  0
 11 12  2  0  0  0  0
 12  6  1  0  0  0  0
 10 13  1  0  0  0  0
  5 14  2  0  0  0  0
M  ZZC   1 3
M  ZZC   2 2
M  ZZC   3 1
M  ZZC   4 4
M  ZZC   5 5
M  ZZC   6 6
M  ZZC   7 12
M  ZZC   8 7
M  ZZC   9 8
M  ZZC  10 9
M  ZZC  11 10
M  ZZC  12 11
M  ZZC  13 14
M  ZZC  14 13
M  END