
  Mnova   09232421562D

 19 19  0  0  0  0  0  0  0  0999 V2000
    0.0000    0.0000    0.0000 C   0  0  0  0  0  0  0  0  0  0  0  0
   -1.3338    0.7700    0.0000 C   0  0  0  0  0  0  0  0  0  0  0  0
   -1.3338    2.3101    0.0000 C   0  0  0  0  0  0  0  0  0  0  0  0
   -2.6675    0.0000    0.0000 C   0  0  0  0  0  0  0  0  0  0  0  0
   -2.6675   -1.5400    0.0000 C   0  0  0  0  0  0  0  0  0  0  0  0
   -4.0012   -2.3101    0.0000 C   0  0  0  0  0  0  0  0  0  0  0  0
   -4.0012   -3.8501    0.0000 C   0  0  0  0  0  0  0  0  0  0  0  0
   -5.5412   -3.8501    0.0000 C   0  0  0  0  0  0  0  0  0  0  0  0
   -2.4611   -3.8501    0.0000 C   0  0  0  0  0  0  0  0  0  0  0  0
   -1.6911   -5.1838    0.0000 C   0  0  0  0  0  0  0  0  0  0  0  0
   -4.0012   -5.3901    0.0000 C   0  0  0  0  0  0  0  0  0  0  0  0
   -5.3350   -6.1601    0.0000 C   0  0  0  0  0  0  0  0  0  0  0  0
   -5.3350   -7.7002    0.0000 C   0  0  0  0  0  0  0  0  0  0  0  0
   -4.0012   -8.4702    0.0000 C   0  0  0  0  0  0  0  0  0  0  0  0
   -4.0012  -10.0102    0.0000 C   0  0  0  0  0  0  0  0  0  0  0  0
   -5.3350  -10.7802    0.0000 C   0  0  0  0  0  0  0  0  0  0  0  0
   -5.3350  -12.3203    0.0000 O   0  0  0  0  0  0  0  0  0  0  0  0
   -6.6687  -10.0102    0.0000 C   0  0  0  0  0  0  0  0  0  0  0  0
   -6.6687   -8.4702    0.0000 C   0  0  0  0  0  0  0  0  0  0  0  0
  1  2  1  0  0  0  0
  2  3  1  0  0  0  0
  2  4  2  0  0  0  0
  4  5  1  0  0  0  0
  5  6  1  0  0  0  0
  6  7  1  0  0  0  0
  7  8  1  6  0  0  0
  7  9  1  0  0  0  0
  9 10  2  0  0  0  0
  7 11  1  0  0  0  0
 11 12  2  0  0  0  0
 12 13  1  0  0  0  0
 13 14  2  0  0  0  0
 14 15  1  0  0  0  0
 15 16  2  0  0  0  0
 16 17  1  0  0  0  0
 16 18  1  0  0  0  0
 18 19  2  0  0  0  0
 19 13  1  0  0  0  0
M  ZZC   1 14
M  ZZC   2 13
M  ZZC   3 19
M  ZZC   4 12
M  ZZC   5 11
M  ZZC   6 10
M  ZZC   7 9
M  ZZC   8 18
M  ZZC   9 16
M  ZZC  10 17
M  ZZC  11 8
M  ZZC  12 7
M  ZZC  13 1
M  ZZC  14 2
M  ZZC  15 3
M  ZZC  16 4
M  ZZC  17 15
M  ZZC  18 5
M  ZZC  19 6
M  END