
  Mnova   10192510032D

 14 14  0  0  0  0  0  0  0  0999 V2000
    0.0000    0.0000    0.0000 C   0  0  0  0  0  0  0  0  0  0  0  0
    0.7700   -1.3337    0.0000 C   0  0  0  0  0  0  0  0  0  0  0  0
    1.5400    0.0000    0.0000 C   0  0  0  0  0  0  0  0  0  0  0  0
    2.1038   -2.1037    0.0000 C   0  0  0  0  0  0  0  0  0  0  0  0
    2.1037   -3.6437    0.0000 C   0  0  0  0  0  0  0  0  0  0  0  0
    0.7700   -4.4137    0.0000 C   0  0  0  0  0  0  0  0  0  0  0  0
   -0.5637   -3.6437    0.0000 C   0  0  0  0  0  0  0  0  0  0  0  0
   -1.8973   -4.4137    0.0000 C   0  0  0  0  0  0  0  0  0  0  0  0
   -0.5637   -2.1037    0.0000 C   0  0  0  0  0  0  0  0  0  0  0  0
   -1.8973   -1.3337    0.0000 C   0  0  0  0  0  0  0  0  0  0  0  0
   -3.2310   -2.1037    0.0000 C   0  0  0  0  0  0  0  0  0  0  0  0
   -4.5648   -1.3337    0.0000 C   0  0  0  0  0  0  0  0  0  0  0  0
   -4.5648    0.2064    0.0000 C   0  0  0  0  0  0  0  0  0  0  0  0
   -5.8985   -2.1037    0.0000 O   0  0  0  0  0  0  0  0  0  0  0  0
  1  2  1  0  0  0  0
  2  3  1  0  0  0  0
  2  4  1  0  0  0  0
  4  5  1  0  0  0  0
  5  6  1  0  0  0  0
  6  7  1  0  0  0  0
  7  8  1  0  0  0  0
  7  9  2  0  0  0  0
  9  2  1  0  0  0  0
  9 10  1  0  0  0  0
 10 11  2  0  0  0  0
 11 12  1  0  0  0  0
 12 13  1  0  0  0  0
 12 14  2  0  0  0  0
M  END