
  Mnova   09232420412D

 18 20  0  0  0  0  0  0  0  0999 V2000
    0.0000    0.0000    0.0000 C   0  0  0  0  0  0  0  0  0  0  0  0
    0.7700   -1.3337    0.0000 C   0  0  0  0  0  0  0  0  0  0  0  0
   -0.7700   -1.3337    0.0000 C   0  0  0  0  0  0  0  0  0  0  0  0
    0.7700   -2.8737    0.0000 C   0  0  0  0  0  0  0  0  0  0  0  0
    2.1037   -3.6437    0.0000 C   0  0  0  0  0  0  0  0  0  0  0  0
    3.4375   -2.8737    0.0000 C   0  0  0  0  0  0  0  0  0  0  0  0
    3.4375   -1.3337    0.0000 C   0  0  0  0  0  0  0  0  0  0  0  0
    2.1037   -0.5637    0.0000 O   0  0  0  0  0  0  0  0  0  0  0  0
    4.7712   -0.5637    0.0000 C   0  0  0  0  0  0  0  0  0  0  0  0
    4.7712    0.9764    0.0000 C   0  0  0  0  0  0  0  0  0  0  0  0
    6.1048    1.7464    0.0000 C   0  0  0  0  0  0  0  0  0  0  0  0
    7.4385    0.9764    0.0000 C   0  0  0  0  0  0  0  0  0  0  0  0
    7.4385   -0.5637    0.0000 C   0  0  0  0  0  0  0  0  0  0  0  0
    6.1048   -1.3337    0.0000 C   0  0  0  0  0  0  0  0  0  0  0  0
    6.1048   -2.8737    0.0000 C   0  0  0  0  0  0  0  0  0  0  0  0
    7.4385   -3.6437    0.0000 O   0  0  0  0  0  0  0  0  0  0  0  0
    4.7712   -3.6437    0.0000 C   0  0  0  0  0  0  0  0  0  0  0  0
    4.7712   -5.1838    0.0000 O   0  0  0  0  0  0  0  0  0  0  0  0
  1  2  1  0  0  0  0
  2  3  1  0  0  0  0
  2  4  1  0  0  0  0
  4  5  1  0  0  0  0
  5  6  1  0  0  0  0
  6  7  2  0  0  0  0
  7  8  1  0  0  0  0
  8  2  1  0  0  0  0
  7  9  1  0  0  0  0
  9 10  2  0  0  0  0
 10 11  1  0  0  0  0
 11 12  2  0  0  0  0
 12 13  1  0  0  0  0
 13 14  2  0  0  0  0
 14  9  1  0  0  0  0
 14 15  1  0  0  0  0
 15 16  2  0  0  0  0
 15 17  1  0  0  0  0
 17  6  1  0  0  0  0
 17 18  2  0  0  0  0
M  ZZC   1 11
M  ZZC   2 10
M  ZZC   3 18
M  ZZC   4 9
M  ZZC   5 8
M  ZZC   6 7
M  ZZC   7 2
M  ZZC   8 1
M  ZZC   9 3
M  ZZC  10 12
M  ZZC  11 13
M  ZZC  12 14
M  ZZC  13 15
M  ZZC  14 4
M  ZZC  15 5
M  ZZC  16 16
M  ZZC  17 6
M  ZZC  18 17
M  END