
  ACD/Labs04281712162D

 37 41  0  0  0  0  0  0  0  0999 V2000
    0.0000   -8.3277    0.0000 O   0  0  0  0  0  0  0  0  0  0  0  0
   11.8124   -4.2406    0.0000 O   0  0  0  0  0  0  0  0  0  0  0  0
   10.6902   -6.2369    0.0000 O   0  0  0  0  0  0  0  0  0  0  0  0
    5.9889   -6.2724    0.0000 C   0  0  0  0  0  0  0  0  0  0  0  0
    7.1347   -5.6109    0.0000 C   0  0  0  0  0  0  0  0  0  0  0  0
    4.8431   -5.6109    0.0000 C   0  0  0  0  0  0  0  0  0  0  0  0
    7.1347   -4.2879    0.0000 C   0  0  0  0  0  0  0  0  0  0  0  0
    3.6382   -6.2724    0.0000 C   0  0  0  0  0  0  0  0  0  0  0  0
    8.3159   -3.5791    0.0000 C   0  0  0  0  0  0  0  0  0  0  0  0
    3.6264   -7.6544    0.0000 C   0  0  0  0  0  0  0  0  0  0  0  0
    9.5208   -4.2524    0.0000 C   0  0  0  0  0  0  0  0  0  0  0  0
    6.0125   -7.6544    0.0000 C   0  0  0  0  0  0  0  0  0  0  0  0
    4.8431   -4.2879    0.0000 C   0  0  0  0  0  0  0  0  0  0  0  0
    8.3159   -6.3196    0.0000 C   0  0  0  0  0  0  0  0  0  0  0  0
    5.9889   -3.6264    0.0000 C   0  0  0  0  0  0  0  0  0  0  0  0
    4.8194   -8.3513    0.0000 C   0  0  0  0  0  0  0  0  0  0  0  0
    9.5208   -5.6345    0.0000 C   0  0  0  0  0  0  0  0  0  0  0  0
    2.3861   -8.3750    0.0000 C   0  0  0  0  0  0  0  0  0  0  0  0
    8.5994   -2.2325    0.0000 C   0  0  0  0  0  0  0  0  0  0  0  0
    2.4097   -5.5282    0.0000 C   0  0  0  0  0  0  0  0  0  0  0  0
    6.8512   -7.2764    0.0000 C   0  0  0  0  0  0  0  0  0  0  0  0
    7.5835   -6.8630    0.0000 C   0  0  0  0  0  0  0  0  0  0  0  0
   10.5248   -3.3193    0.0000 C   0  0  0  0  0  0  0  0  0  0  0  0
    9.9578   -2.0790    0.0000 C   0  0  0  0  0  0  0  0  0  0  0  0
    3.6382   -4.9494    0.0000 C   0  0  0  0  0  0  0  0  0  0  0  0
    1.1340   -7.6662    0.0000 C   0  0  0  0  0  0  0  0  0  0  0  0
    1.1576   -6.2369    0.0000 C   0  0  0  0  0  0  0  0  0  0  0  0
   10.6784   -4.9139    0.0000 C   0  0  0  0  0  0  0  0  0  0  0  0
    1.7364   -9.5326    0.0000 C   0  0  0  0  0  0  0  0  0  0  0  0
    3.0594   -9.5326    0.0000 C   0  0  0  0  0  0  0  0  0  0  0  0
    7.7017   -1.2521    0.0000 C   0  0  0  0  0  0  0  0  0  0  0  0
    8.1033    0.0000    0.0000 C   0  0  0  0  0  0  0  0  0  0  0  0
    6.4141   -1.5356    0.0000 C   0  0  0  0  0  0  0  0  0  0  0  0
    5.7644   -5.0793    0.0000 H   0  0  0  0  0  0  0  0  0  0  0  0
    7.1229   -3.2248    0.0000 H   0  0  0  0  0  0  0  0  0  0  0  0
    7.4536   -2.9649    0.0000 H   0  0  0  0  0  0  0  0  0  0  0  0
    3.6264   -8.7057    0.0000 H   0  0  0  0  0  0  0  0  0  0  0  0
 26  1  1  1  0  0  0
  2 28  1  0  0  0  0
  3 28  2  0  0  0  0
  4  5  1  0  0  0  0
  4  6  1  0  0  0  0
  4 12  1  0  0  0  0
  4 21  1  1  0  0  0
  5  7  1  0  0  0  0
  5 14  1  0  0  0  0
  5 22  1  6  0  0  0
  6  8  1  0  0  0  0
  6 13  1  0  0  0  0
  6 34  1  6  0  0  0
  7  9  1  0  0  0  0
  7 15  1  0  0  0  0
  7 35  1  1  0  0  0
  8 10  1  0  0  0  0
  8 20  1  0  0  0  0
  8 25  1  1  0  0  0
  9 11  1  0  0  0  0
  9 19  1  0  0  0  0
  9 36  1  6  0  0  0
 10 16  1  0  0  0  0
 10 18  1  0  0  0  0
 10 37  1  6  0  0  0
 11 17  1  0  0  0  0
 11 23  1  0  0  0  0
 11 28  1  1  0  0  0
 12 16  1  0  0  0  0
 13 15  1  0  0  0  0
 14 17  1  0  0  0  0
 18 26  1  0  0  0  0
 18 29  1  0  0  0  0
 18 30  1  0  0  0  0
 19 24  1  0  0  0  0
 19 31  1  6  0  0  0
 20 27  1  0  0  0  0
 23 24  1  0  0  0  0
 26 27  1  0  0  0  0
 31 32  1  0  0  0  0
 31 33  2  0  0  0  0
M  END