
  Mnova   10082419242D

 11 12  0  0  0  0  0  0  0  0999 V2000
    0.0000    0.0000    0.0000 C   0  0  0  0  0  0  0  0  0  0  0  0
    1.6674   -0.7423    0.0000 C   0  0  0  0  0  0  0  0  0  0  0  0
    1.8582    1.0728    0.0000 C   0  0  0  0  0  0  0  0  0  0  0  0
    3.0118   -2.5357    0.0000 C   0  0  0  0  0  0  0  0  0  0  0  0
    6.3553   -3.9208    0.0000 C   0  0  0  0  0  0  0  0  0  0  0  0
    5.8830   -5.6837    0.0000 C   0  0  0  0  0  0  0  0  0  0  0  0
    2.5395   -4.2987    0.0000 C   0  0  0  0  0  0  0  0  0  0  0  0
    2.0670   -6.0616    0.0000 C   0  0  0  0  0  0  0  0  0  0  0  0
   -0.6218   -6.1239    0.0000 C   0  0  0  0  0  0  0  0  0  0  0  0
   -1.6446   -7.2752    0.0000 O   0  0  0  0  0  0  0  0  0  0  0  0
   -0.1890   -4.2863    0.0000 C   0  0  0  0  0  0  0  0  0  0  0  0
  1  2  1  0  0  0  0
  2  3  1  0  0  0  0
  2  4  1  0  0  0  0
  4  5  1  0  0  0  0
  5  6  1  0  0  0  0
  6  7  1  0  0  0  0
  7  2  1  0  0  0  0
  7  8  1  0  0  0  0
  7  9  1  0  0  0  0
  9 10  2  0  0  0  0
  9 11  1  0  0  0  0
 11  4  1  0  0  0  0
M  ZZC   1 10
M  ZZC   2 2
M  ZZC   3 11
M  ZZC   4 3
M  ZZC   5 8
M  ZZC   6 7
M  ZZC   7 1
M  ZZC   8 9
M  ZZC   9 5
M  ZZC  10 6
M  ZZC  11 4
M  END